/*--------------------------------*- C++ -*----------------------------------*\
  =========                 |
  \\      /  F ield         | OpenFOAM: The Open Source CFD Toolbox
   \\    /   O peration     | Website:  https://openfoam.org
    \\  /    A nd           | Version:  7
     \\/     M anipulation  |
\*---------------------------------------------------------------------------*/
FoamFile
{
    version     2.0;
    format      ascii;
    class       polyBoundaryMesh;
    location    "constant/polyMesh";
    object      boundary;
}
// * * * * * * * * * * * * * * * * * * * * * * * * * * * * * * * * * * * * * //

6
(
    front
    {
        type            wedge;
        inGroups        List<word> 1(wedge);
        nFaces          600000;
        startFace       1196800;
    }
    back
    {
        type            wedge;
        inGroups        List<word> 1(wedge);
        nFaces          600000;
        startFace       1796800;
    }
    tunnelWall
    {
        type            wall;
        inGroups        List<word> 1(wall);
        nFaces          3000;
        startFace       2396800;
    }
    inlet
    {
        type            patch;
        nFaces          200;
        startFace       2399800;
    }
    outlet
    {
        type            patch;
        nFaces          200;
        startFace       2400000;
    }
    axis
    {
        type            empty;
        inGroups        List<word> 1(empty);
        nFaces          0;
        startFace       2400200;
    }
)

// ************************************************************************* //
