/*--------------------------------*- C++ -*----------------------------------*\
| =========                 |                                                 |
| \\      /  F ield         | OpenFOAM: The Open Source CFD Toolbox           |
|  \\    /   O peration     | Version:  v1812                                 |
|   \\  /    A nd           | Web:      www.OpenFOAM.com                      |
|    \\/     M anipulation  |                                                 |
\*---------------------------------------------------------------------------*/
FoamFile
{
    version     2.0;
    format      ascii;
    class       polyBoundaryMesh;
    location    "constant/polyMesh";
    object      boundary;
}
// * * * * * * * * * * * * * * * * * * * * * * * * * * * * * * * * * * * * * //

5
(
    front
    {
        type            wedge;
        inGroups        1(wedge);
        nFaces          5700;
        startFace       11081;
    }
    back
    {
        type            wedge;
        inGroups        1(wedge);
        nFaces          5700;
        startFace       16781;
    }
    tunnelWall
    {
        type            wall;
        inGroups        1(wall);
        nFaces          300;
        startFace       22481;
    }
    inlet
    {
        type            patch;
        nFaces          19;
        startFace       22781;
    }
    outlet
    {
        type            patch;
        nFaces          19;
        startFace       22800;
    }
)

// ************************************************************************* //
