/*--------------------------------*- C++ -*----------------------------------*\
  =========                 |
  \\      /  F ield         | OpenFOAM: The Open Source CFD Toolbox
   \\    /   O peration     | Website:  https://openfoam.org
    \\  /    A nd           | Version:  7
     \\/     M anipulation  |
\*---------------------------------------------------------------------------*/
FoamFile
{
    version     2.0;
    format      ascii;
    class       polyBoundaryMesh;
    location    "constant/polyMesh";
    object      boundary;
}
// * * * * * * * * * * * * * * * * * * * * * * * * * * * * * * * * * * * * * //

6
(
    front
    {
        type            wedge;
        inGroups        List<word> 1(wedge);
        nFaces          75000;
        startFace       148450;
    }
    back
    {
        type            wedge;
        inGroups        List<word> 1(wedge);
        nFaces          75000;
        startFace       223450;
    }
    tunnelWall
    {
        type            wall;
        inGroups        List<word> 1(wall);
        nFaces          1500;
        startFace       298450;
    }
    inlet
    {
        type            patch;
        nFaces          50;
        startFace       299950;
    }
    outlet
    {
        type            patch;
        nFaces          50;
        startFace       300000;
    }
    axis
    {
        type            empty;
        inGroups        List<word> 1(empty);
        nFaces          0;
        startFace       300050;
    }
)

// ************************************************************************* //
