/*--------------------------------*- C++ -*----------------------------------*\
| =========                 |                                                 |
| \\      /  F ield         | OpenFOAM: The Open Source CFD Toolbox           |
|  \\    /   O peration     | Version:  v3.0+                                 |
|   \\  /    A nd           | Web:      www.OpenFOAM.com                      |
|    \\/     M anipulation  |                                                 |
\*---------------------------------------------------------------------------*/
FoamFile
{
    version     2.0;
    format      ascii;
    class       polyBoundaryMesh;
    location    "constant/polyMesh";
    object      boundary;
}
// * * * * * * * * * * * * * * * * * * * * * * * * * * * * * * * * * * * * * //

6
(
    back
    {
        type            empty;
        nFaces          250;
        startFace       355;
    }
    front
    {
        type            empty;
        nFaces          250;
        startFace       605;
    }
    left
    {
        type            patch;
        physicalType    patch;
        nFaces          10;
        startFace       855;
    }
    bottom
    {
        type            patch;
        physicalType    patch;
        nFaces          10;
        startFace       865;
    }
    right
    {
        type            patch;
        physicalType    patch;
        nFaces          10;
        startFace       875;
    }
    top
    {
        type            patch;
        physicalType    patch;
        nFaces          10;
        startFace       885;
    }
)

// ************************************************************************* //
