/*--------------------------------*- C++ -*----------------------------------*\
  =========                 |
  \\      /  F ield         | OpenFOAM: The Open Source CFD Toolbox
   \\    /   O peration     | Website:  https://openfoam.org
    \\  /    A nd           | Version:  7
     \\/     M anipulation  |
\*---------------------------------------------------------------------------*/
FoamFile
{
    version     2.0;
    format      ascii;
    class       volVectorField;
    object      U;
}
// * * * * * * * * * * * * * * * * * * * * * * * * * * * * * * * * * * * * * //

dimensions      [0 1 -1 0 0 0 0];

internalField   uniform (0 0 0);

boundaryField
{
  front
  {
    type            wedge;
  }
  back
  {
    type            wedge;
  }
  inlet
  {
    type            fixedValue;
    // velocity is 10 in the z direction
    value           uniform (0 0 2921.93074133253);
  }
  outlet
  {
      type            zeroGradient;
  }
  tunnelWall
  {
      type            noSlip;
  }
}

// ************************************************************************* //
